
 OpenBabel11181510553D

 33 36  0  0  0  0  0  0  0  0999 V2000
   -2.0946    0.1443   -0.0558 N   0  0  0  0  0  0  0  0  0  0  0  0
    0.1227    2.0791   -0.0531 N   0  0  0  0  0  0  0  0  0  0  0  0
   -0.1264   -2.0747   -0.0552 N   0  0  0  0  0  0  0  0  0  0  0  0
    2.0939   -0.1089   -0.0550 N   0  0  0  0  0  0  0  0  0  0  0  0
   -2.9811   -0.9568   -0.0313 C   0  0  0  0  0  0  0  0  0  0  0  0
   -4.3439   -0.4455   -0.0001 C   0  0  0  0  0  0  0  0  0  0  0  0
   -4.2238    0.9302    0.0004 C   0  0  0  0  0  0  0  0  0  0  0  0
   -2.7830    1.2306   -0.0323 C   0  0  0  0  0  0  0  0  0  0  0  0
   -5.2693   -1.0077    0.0213 H   0  0  0  0  0  0  0  0  0  0  0  0
   -5.0432    1.6372    0.0215 H   0  0  0  0  0  0  0  0  0  0  0  0
   -2.2124    2.6102   -0.0285 C   0  0  0  0  0  0  0  0  0  0  0  0
   -2.6370   -2.2620   -0.0244 C   0  0  0  0  0  0  0  0  0  0  0  0
   -0.4373    4.2502   -0.0208 C   0  0  0  0  0  0  0  0  0  0  0  0
    0.9418    4.1653   -0.0205 C   0  0  0  0  0  0  0  0  0  0  0  0
    1.2546    2.8192   -0.0363 C   0  0  0  0  0  0  0  0  0  0  0  0
   -0.9046    2.9481   -0.0367 C   0  0  0  0  0  0  0  0  0  0  0  0
   -1.0263    5.1580   -0.0062 H   0  0  0  0  0  0  0  0  0  0  0  0
    1.6375    4.9975   -0.0057 H   0  0  0  0  0  0  0  0  0  0  0  0
    2.5069    2.3252   -0.0276 C   0  0  0  0  0  0  0  0  0  0  0  0
    0.9056   -2.9417   -0.0368 C   0  0  0  0  0  0  0  0  0  0  0  0
    0.4349   -4.2410   -0.0186 C   0  0  0  0  0  0  0  0  0  0  0  0
   -0.9440   -4.1579   -0.0190 C   0  0  0  0  0  0  0  0  0  0  0  0
   -1.2547   -2.8113   -0.0374 C   0  0  0  0  0  0  0  0  0  0  0  0
    1.0262   -5.1484   -0.0021 H   0  0  0  0  0  0  0  0  0  0  0  0
   -1.6400   -4.9875   -0.0028 H   0  0  0  0  0  0  0  0  0  0  0  0
    4.3026    0.4155    0.0026 C   0  0  0  0  0  0  0  0  0  0  0  0
    4.2568   -0.9648    0.0022 C   0  0  0  0  0  0  0  0  0  0  0  0
    2.8428   -1.3079   -0.0298 C   0  0  0  0  0  0  0  0  0  0  0  0
    2.9099    0.8873   -0.0310 C   0  0  0  0  0  0  0  0  0  0  0  0
    5.2015    1.0189    0.0241 H   0  0  0  0  0  0  0  0  0  0  0  0
    5.1077   -1.6340    0.0243 H   0  0  0  0  0  0  0  0  0  0  0  0
    2.3436   -2.5627   -0.0230 C   0  0  0  0  0  0  0  0  0  0  0  0
   -0.0011    0.0005    0.0902 Fe  0  0  0  0  0 15  0  0  0  0  0  0
  1  5  1  0  0  0  0
  1  8  2  0  0  0  0
  4 29  2  0  0  0  0
  4 28  1  0  0  0  0
  5 12  2  0  0  0  0
  5  6  1  0  0  0  0
  6  9  1  0  0  0  0
  7  6  2  0  0  0  0
  8  7  1  0  0  0  0
 10  7  1  0  0  0  0
 11  8  1  0  0  0  0
 12 23  1  0  0  0  0
 13 16  1  0  0  0  0
 14 13  2  0  0  0  0
 14 15  1  0  0  0  0
 15 19  2  0  0  0  0
 15  2  1  0  0  0  0
 16 11  2  0  0  0  0
 16  2  1  0  0  0  0
 17 13  1  0  0  0  0
 18 14  1  0  0  0  0
 19 29  1  0  0  0  0
 20  3  1  0  0  0  0
 20 32  1  0  0  0  0
 21 24  1  0  0  0  0
 21 20  2  0  0  0  0
 22 21  1  0  0  0  0
 22 23  2  0  0  0  0
 23  3  1  0  0  0  0
 25 22  1  0  0  0  0
 26 27  2  0  0  0  0
 26 30  1  0  0  0  0
 27 31  1  0  0  0  0
 28 27  1  0  0  0  0
 29 26  1  0  0  0  0
 32 28  2  0  0  0  0
M  END
