
 OpenBabel03211612003D

 49 52  0  0  0  0  0  0  0  0999 V2000
    0.7466   17.4328    1.9016 N   0  0  0  0  0  0  0  0  0  0  0  0
    0.9437   17.9312    0.6834 C   0  0  0  0  0  0  0  0  0  0  0  0
    0.5924   17.4597   -0.0616 H   0  0  0  0  0  0  0  0  0  0  0  0
    1.6318   19.0979    0.4523 C   0  0  0  0  0  0  0  0  0  0  0  0
    1.7717   19.4191   -0.4303 H   0  0  0  0  0  0  0  0  0  0  0  0
    2.1110   19.7884    1.5494 C   0  0  0  0  0  0  0  0  0  0  0  0
    2.5857   20.6009    1.4295 H   0  0  0  0  0  0  0  0  0  0  0  0
    1.8998   19.2950    2.8095 C   0  0  0  0  0  0  0  0  0  0  0  0
    2.2097   19.7728    3.5699 H   0  0  0  0  0  0  0  0  0  0  0  0
    1.2267   18.0918    2.9679 C   0  0  0  0  0  0  0  0  0  0  0  0
    1.0355   17.4363    4.2687 C   0  0  0  0  0  0  0  0  0  0  0  0
    0.9381   18.1283    4.9697 H   0  0  0  0  0  0  0  0  0  0  0  0
    1.8400   16.8998    4.4822 H   0  0  0  0  0  0  0  0  0  0  0  0
   -0.1550   16.5558    4.2874 N   0  0  0  0  0  0  0  0  0  0  0  0
   -0.0494   15.4804    5.2932 C   0  0  0  0  0  0  0  0  0  0  0  0
   -0.3582   15.8152    6.1714 H   0  0  0  0  0  0  0  0  0  0  0  0
    0.8972   15.2048    5.3845 H   0  0  0  0  0  0  0  0  0  0  0  0
   -0.8809   14.3005    4.8838 C   0  0  0  0  0  0  0  0  0  0  0  0
   -1.2838   13.3445    5.7906 C   0  0  0  0  0  0  0  0  0  0  0  0
   -1.1157   13.4631    6.7183 H   0  0  0  0  0  0  0  0  0  0  0  0
   -1.9311   12.2171    5.3438 C   0  0  0  0  0  0  0  0  0  0  0  0
   -2.1873   11.5348    5.9557 H   0  0  0  0  0  0  0  0  0  0  0  0
   -2.2048   12.0845    3.9991 C   0  0  0  0  0  0  0  0  0  0  0  0
   -2.6689   11.3249    3.6689 H   0  0  0  0  0  0  0  0  0  0  0  0
   -1.7898   13.0809    3.1484 C   0  0  0  0  0  0  0  0  0  0  0  0
   -1.9790   12.9966    2.2207 H   0  0  0  0  0  0  0  0  0  0  0  0
   -1.1280   14.1687    3.5743 N   0  0  0  0  0  0  0  0  0  0  0  0
   -1.4224   17.3586    4.5185 C   0  0  0  0  0  0  0  0  0  0  0  0
   -1.9407   16.9387    5.2492 H   0  0  0  0  0  0  0  0  0  0  0  0
   -1.1754   18.2722    4.8101 H   0  0  0  0  0  0  0  0  0  0  0  0
   -2.0039   16.6607    2.2934 N   0  0  0  0  0  0  0  0  0  0  0  0
   -2.2833   17.4527    3.3025 C   0  0  0  0  0  0  0  0  0  0  0  0
   -3.3879   18.3157    3.2529 C   0  0  0  0  0  0  0  0  0  0  0  0
   -3.6008   18.8942    3.9760 H   0  0  0  0  0  0  0  0  0  0  0  0
   -4.1530   18.2858    2.1041 C   0  0  0  0  0  0  0  0  0  0  0  0
   -4.8998   18.8670    2.0292 H   0  0  0  0  0  0  0  0  0  0  0  0
   -3.8603   17.4406    1.0762 C   0  0  0  0  0  0  0  0  0  0  0  0
   -4.4019   17.4247    0.2960 H   0  0  0  0  0  0  0  0  0  0  0  0
   -2.7689   16.6129    1.1852 C   0  0  0  0  0  0  0  0  0  0  0  0
   -2.2985   15.6488    0.1882 C   0  0  0  0  0  0  0  0  0  0  0  0
   -2.9941   15.3381   -0.9706 C   0  0  0  0  0  0  0  0  0  0  0  0
   -3.8257   15.7569   -1.1577 H   0  0  0  0  0  0  0  0  0  0  0  0
   -2.4674   14.4140   -1.8455 C   0  0  0  0  0  0  0  0  0  0  0  0
   -2.9401   14.1823   -2.6367 H   0  0  0  0  0  0  0  0  0  0  0  0
   -1.2598   13.8321   -1.5693 C   0  0  0  0  0  0  0  0  0  0  0  0
   -0.8647   13.2143   -2.1712 H   0  0  0  0  0  0  0  0  0  0  0  0
   -0.6386   14.1714   -0.3962 C   0  0  0  0  0  0  0  0  0  0  0  0
    0.1794   13.7391   -0.1849 H   0  0  0  0  0  0  0  0  0  0  0  0
   -1.1031   15.0602    0.4567 N   0  0  0  0  0  0  0  0  0  0  0  0
  1 10  2  0  0  0  0
  2  1  1  0  0  0  0
  3  2  1  0  0  0  0
  4  2  2  0  0  0  0
  4  6  1  0  0  0  0
  5  4  1  0  0  0  0
  6  8  2  0  0  0  0
  7  6  1  0  0  0  0
  8 10  1  0  0  0  0
  8  9  1  0  0  0  0
 10 11  1  0  0  0  0
 11 14  1  0  0  0  0
 11 13  1  0  0  0  0
 11 12  1  0  0  0  0
 14 28  1  0  0  0  0
 14 15  1  0  0  0  0
 15 17  1  0  0  0  0
 15 16  1  0  0  0  0
 18 15  1  0  0  0  0
 18 19  2  0  0  0  0
 19 20  1  0  0  0  0
 21 19  1  0  0  0  0
 21 22  1  0  0  0  0
 23 21  2  0  0  0  0
 24 23  1  0  0  0  0
 25 27  2  0  0  0  0
 25 23  1  0  0  0  0
 26 25  1  0  0  0  0
 27 18  1  0  0  0  0
 28 30  1  0  0  0  0
 28 29  1  0  0  0  0
 31 32  2  0  0  0  0
 32 28  1  0  0  0  0
 33 32  1  0  0  0  0
 33 34  1  0  0  0  0
 35 33  2  0  0  0  0
 36 35  1  0  0  0  0
 37 39  2  0  0  0  0
 37 35  1  0  0  0  0
 38 37  1  0  0  0  0
 39 31  1  0  0  0  0
 40 49  1  0  0  0  0
 40 39  1  0  0  0  0
 41 40  2  0  0  0  0
 42 41  1  0  0  0  0
 43 45  2  0  0  0  0
 43 41  1  0  0  0  0
 44 43  1  0  0  0  0
 45 47  1  0  0  0  0
 46 45  1  0  0  0  0
 47 48  1  0  0  0  0
 47 49  2  0  0  0  0
M  END
