
 OpenBabel07231507433D

  4  3  0  0  0  0  0  0  0  0999 V2000
   -3.9021    1.5222   -0.0000 C   0  0  0  0  0  0  0  0  0  0  0  0
   -3.9429    2.7424   -0.0000 O   0  0  0  0  0  0  0  0  0  0  0  0
   -2.7157    0.8806    0.0000 O   0  0  0  0  0  0  0  0  0  0  0  0
   -1.8816    1.3714    0.0000 H   0  0  0  0  0  0  0  0  0  0  0  0
  1  2  2  0  0  0  0
  1  3  1  0  0  0  0
  3  4  1  0  0  0  0
M  CHG  1   1   -1
M  END
