
 OpenBabel03211612013D

 32 31  0  0  0  0  0  0  0  0999 V2000
    0.1520    1.7600   -0.7360 N   0  0  0  0  0  0  0  0  0  0  0  0
    1.7160    0.1640    0.8440 N   0  0  0  0  0  0  0  0  0  0  0  0
   -0.7720    0.2800    1.5720 O   0  0  0  0  0  0  0  0  0  0  0  0
    0.1560   -1.7760    0.4200 O   0  0  0  0  0  0  0  0  0  0  0  0
   -1.7000    0.0480   -0.6240 O   0  0  0  0  0  0  0  0  0  0  0  0
    0.5000   -0.6400   -1.6640 O   0  0  0  0  0  0  0  0  0  0  0  0
    0.7480    0.2880   -2.5960 C   0  0  0  0  0  0  0  0  0  0  0  0
    1.0600   -0.0240   -3.7440 O   0  0  0  0  0  0  0  0  0  0  0  0
    0.4600    1.7040   -2.2040 C   0  0  0  0  0  0  0  0  0  0  0  0
   -0.3840    2.0480   -2.8040 H   0  0  0  0  0  0  0  0  0  0  0  0
    1.3200    2.3240   -2.4600 H   0  0  0  0  0  0  0  0  0  0  0  0
    1.2480    2.4240    0.0200 C   0  0  0  0  0  0  0  0  0  0  0  0
    2.3600    1.3680    0.2480 C   0  0  0  0  0  0  0  0  0  0  0  0
    1.6480    3.2880   -0.5160 H   0  0  0  0  0  0  0  0  0  0  0  0
    0.8920    2.7720    0.9920 H   0  0  0  0  0  0  0  0  0  0  0  0
    2.8120    1.1240   -0.7160 H   0  0  0  0  0  0  0  0  0  0  0  0
    3.1440    1.7680    0.8920 H   0  0  0  0  0  0  0  0  0  0  0  0
   -1.1800    2.3920   -0.5080 C   0  0  0  0  0  0  0  0  0  0  0  0
   -2.1880    1.3040   -0.7480 C   0  0  0  0  0  0  0  0  0  0  0  0
   -3.2600    1.5160   -1.3200 O   0  0  0  0  0  0  0  0  0  0  0  0
   -1.3440    3.2400   -1.1720 H   0  0  0  0  0  0  0  0  0  0  0  0
   -1.2840    2.7320    0.5240 H   0  0  0  0  0  0  0  0  0  0  0  0
    1.5120    0.3360    2.3240 C   0  0  0  0  0  0  0  0  0  0  0  0
    0.0520    0.5120    2.6040 C   0  0  0  0  0  0  0  0  0  0  0  0
   -0.3800    0.6960    3.7400 O   0  0  0  0  0  0  0  0  0  0  0  0
    1.8480   -0.5440    2.8760 H   0  0  0  0  0  0  0  0  0  0  0  0
    2.0560    1.2000    2.7120 H   0  0  0  0  0  0  0  0  0  0  0  0
    1.4280   -2.1920    0.6200 C   0  0  0  0  0  0  0  0  0  0  0  0
    2.4600   -1.0920    0.5640 C   0  0  0  0  0  0  0  0  0  0  0  0
    1.6680   -3.2880    1.1160 O   0  0  0  0  0  0  0  0  0  0  0  0
    2.8880   -1.0800   -0.4360 H   0  0  0  0  0  0  0  0  0  0  0  0
    3.2600   -1.2600    1.2880 H   0  0  0  0  0  0  0  0  0  0  0  0
  1 18  1  0  0  0  0
  1 12  1  0  0  0  0
  2 23  1  0  0  0  0
  3 24  2  0  0  0  0
  4 28  2  0  0  0  0
  7  9  1  0  0  0  0
  7  6  1  0  0  0  0
  8  7  2  0  0  0  0
  9  1  1  0  0  0  0
 10  9  1  0  0  0  0
 11  9  1  0  0  0  0
 12 13  1  0  0  0  0
 12 15  1  0  0  0  0
 13  2  1  0  0  0  0
 13 17  1  0  0  0  0
 14 12  1  0  0  0  0
 16 13  1  0  0  0  0
 18 22  1  0  0  0  0
 19  5  1  0  0  0  0
 19 18  1  0  0  0  0
 20 19  2  0  0  0  0
 21 18  1  0  0  0  0
 23 24  1  0  0  0  0
 23 27  1  0  0  0  0
 23 26  1  0  0  0  0
 24 25  1  0  0  0  0
 28 30  1  0  0  0  0
 29 28  1  0  0  0  0
 29  2  1  0  0  0  0
 29 32  1  0  0  0  0
 31 29  1  0  0  0  0
M  CHG  4   1   -1  2   -1  3   -1  4   -1
M  END
