
 OpenBabel04201614333D

 19 18  0  0  1  0  0  0  0  0999 V2000
    0.1450   -0.2230    0.0000 N   0  0  0  0  0  0  0  0  0  0  0  0
    1.5920   -0.0270    0.0000 C   0  0  2  0  0  0  0  0  0  0  0  0
    1.9380    1.4430    0.0000 C   0  0  0  0  0  0  0  0  0  0  0  0
    1.0760    2.3130    0.0000 O   0  0  0  0  0  0  0  0  0  0  0  0
    2.1870   -0.7460   -1.2420 C   0  0  0  0  0  0  0  0  0  0  0  0
    1.7960   -0.1880   -2.6510 C   0  0  0  0  0  0  0  0  0  0  0  0
    2.2860   -0.9380   -3.8920 C   0  0  0  0  0  0  0  0  0  0  0  0
    2.0040   -0.5940   -5.0320 O   0  0  0  0  0  0  0  0  0  0  0  0
    3.0630   -2.0200   -3.6070 O   0  0  0  0  0  0  0  0  0  0  0  0
   -0.5450    0.6070    0.0000 H   0  0  0  0  0  0  0  0  0  0  0  0
   -0.2980   -1.2080    0.0000 H   0  0  0  0  0  0  0  0  0  0  0  0
    2.0100   -0.4720    0.9220 H   0  0  0  0  0  0  0  0  0  0  0  0
    1.5240    3.2410    0.0000 H   0  0  0  0  0  0  0  0  0  0  0  0
    3.2910   -0.7430   -1.1600 H   0  0  0  0  0  0  0  0  0  0  0  0
    1.9160   -1.8190   -1.1940 H   0  0  0  0  0  0  0  0  0  0  0  0
    0.6950   -0.1220   -2.7320 H   0  0  0  0  0  0  0  0  0  0  0  0
    2.1380    0.8590   -2.7540 H   0  0  0  0  0  0  0  0  0  0  0  0
    2.1980    0.4110   -5.1460 H   0  0  0  0  0  0  0  0  0  0  0  0
    3.3330    1.7590    0.0000 O   0  0  0  0  0  0  0  0  0  0  0  0
  1  2  1  0  0  0  0
  2 12  1  1  0  0  0
  3  2  1  0  0  0  0
  4  3  1  0  0  0  0
  5 15  1  0  0  0  0
  5 14  1  0  0  0  0
  5  2  1  0  0  0  0
  6  5  1  0  0  0  0
  7  9  2  0  0  0  0
  7  6  1  0  0  0  0
  8  7  1  0  0  0  0
 10  1  1  0  0  0  0
 11  1  1  0  0  0  0
 13  4  1  0  0  0  0
 16  6  1  0  0  0  0
 17  6  1  0  0  0  0
 18  8  1  0  0  0  0
 19  3  2  0  0  0  0
M  END
