
 OpenBabel11191514173D

  3  2  0  0  0  0  0  0  0  0999 V2000
    3.4767    0.0206    0.0627 C   0  6  0  0  0  0  0  0  0  0  0  0
    4.1458    0.0206    1.2481 N   0  0  0  0  0  0  0  0  0  0  0  0
    2.9345    0.0285   -0.9110 H   0  0  0  0  0  0  0  0  0  0  0  0
  1  2  3  0  0  0  0
  1  3  1  0  0  0  0
M  END
