
 OpenBabel07231507463D

  4  3  0  0  0  0  0  0  0  0999 V2000
   -3.6406    2.5431   -0.0182 C   0  0  0  0  0  0  0  0  0  0  0  0
   -2.4278    2.9594   -0.0121 N   0  0  0  0  0  0  0  0  0  0  0  0
   -3.8595    1.4794   -0.0193 H   0  0  0  0  0  0  0  0  0  0  0  0
   -1.6442    2.2906   -0.0082 H   0  0  0  0  0  0  0  0  0  0  0  0
  1  2  2  0  0  0  0
  1  3  1  0  0  0  0
  2  4  1  0  0  0  0
M  CHG  1   1   -1
M  END
