
 OpenBabel04201614333D

 22 21  0  0  1  0  0  0  0  0999 V2000
    0.1160   -0.2160    0.0000 N   0  0  0  0  0  0  0  0  0  0  0  0
    1.5650   -0.0360    0.0000 C   0  0  2  0  0  0  0  0  0  0  0  0
    1.9280    1.4300    0.0000 C   0  0  0  0  0  0  0  0  0  0  0  0
    1.0650    2.3200    0.0000 O   0  0  0  0  0  0  0  0  0  0  0  0
    2.2420   -0.8100   -1.2030 C   0  0  2  0  0  0  0  0  0  0  0  0
    1.8500   -2.3190   -1.3100 C   0  0  0  0  0  0  0  0  0  0  0  0
    3.7990   -0.7150   -1.1850 C   0  0  0  0  0  0  0  0  0  0  0  0
    2.2230   -3.0200   -2.6330 C   0  0  0  0  0  0  0  0  0  0  0  0
   -0.3390   -1.1960    0.0000 H   0  0  0  0  0  0  0  0  0  0  0  0
   -0.5650    0.6220    0.0000 H   0  0  0  0  0  0  0  0  0  0  0  0
    1.9540   -0.4550    0.9460 H   0  0  0  0  0  0  0  0  0  0  0  0
    1.5230    3.2430    0.0000 H   0  0  0  0  0  0  0  0  0  0  0  0
    1.8870   -0.3210   -2.1350 H   0  0  0  0  0  0  0  0  0  0  0  0
    2.2590   -2.8840   -0.4500 H   0  0  0  0  0  0  0  0  0  0  0  0
    0.7520   -2.4230   -1.2120 H   0  0  0  0  0  0  0  0  0  0  0  0
    4.2610   -1.2090   -2.0580 H   0  0  0  0  0  0  0  0  0  0  0  0
    4.1720    0.3240   -1.2290 H   0  0  0  0  0  0  0  0  0  0  0  0
    4.2340   -1.1820   -0.2810 H   0  0  0  0  0  0  0  0  0  0  0  0
    1.8460   -4.0590   -2.6550 H   0  0  0  0  0  0  0  0  0  0  0  0
    1.7910   -2.4990   -3.5090 H   0  0  0  0  0  0  0  0  0  0  0  0
    3.3150   -3.0770   -2.7880 H   0  0  0  0  0  0  0  0  0  0  0  0
    3.3260    1.7290    0.0000 O   0  0  0  0  0  0  0  0  0  0  0  0
  1 10  1  0  0  0  0
  1  9  1  0  0  0  0
  1  2  1  0  0  0  0
  2 11  1  1  0  0  0
  3  2  1  0  0  0  0
  4  3  1  0  0  0  0
  5 13  1  6  0  0  0
  5  7  1  0  0  0  0
  5  2  1  0  0  0  0
  6 15  1  0  0  0  0
  6  5  1  0  0  0  0
  6 14  1  0  0  0  0
  7 18  1  0  0  0  0
  8  6  1  0  0  0  0
 12  4  1  0  0  0  0
 16  7  1  0  0  0  0
 17  7  1  0  0  0  0
 19  8  1  0  0  0  0
 20  8  1  0  0  0  0
 21  8  1  0  0  0  0
 22  3  2  0  0  0  0
M  END
