
 OpenBabel04201614333D

 22 21  0  0  1  0  0  0  0  0999 V2000
    0.0020    0.0190   -0.1280 N   0  0  0  0  0  0  0  0  0  0  0  0
    1.4870   -0.0030   -0.0090 C   0  0  2  0  0  0  0  0  0  0  0  0
    2.0860    1.4190    0.1550 C   0  0  0  0  0  0  0  0  0  0  0  0
    1.8390    2.2380   -0.9090 O   0  0  0  0  0  0  0  0  0  0  0  0
    2.1090   -0.7860   -1.2010 C   0  0  0  0  0  0  0  0  0  0  0  0
    1.8220   -2.3100   -1.2880 C   0  0  0  0  0  0  0  0  0  0  0  0
    2.3090   -2.8640   -2.6370 C   0  0  0  0  0  0  0  0  0  0  0  0
    2.4950   -3.1050   -0.1550 C   0  0  0  0  0  0  0  0  0  0  0  0
   -0.5480   -0.7380    0.2950 H   0  0  0  0  0  0  0  0  0  0  0  0
   -0.4370    0.7240   -0.7330 H   0  0  0  0  0  0  0  0  0  0  0  0
    1.7460   -0.5320    0.9270 H   0  0  0  0  0  0  0  0  0  0  0  0
    2.2520    3.0800   -0.7170 H   0  0  0  0  0  0  0  0  0  0  0  0
    1.7840   -0.2980   -2.1420 H   0  0  0  0  0  0  0  0  0  0  0  0
    3.2080   -0.6450   -1.1920 H   0  0  0  0  0  0  0  0  0  0  0  0
    0.7270   -2.4710   -1.2310 H   0  0  0  0  0  0  0  0  0  0  0  0
    2.0870   -3.9430   -2.7420 H   0  0  0  0  0  0  0  0  0  0  0  0
    1.8190   -2.3570   -3.4880 H   0  0  0  0  0  0  0  0  0  0  0  0
    3.4010   -2.7420   -2.7690 H   0  0  0  0  0  0  0  0  0  0  0  0
    2.2990   -4.1900   -0.2400 H   0  0  0  0  0  0  0  0  0  0  0  0
    3.5930   -2.9710   -0.1470 H   0  0  0  0  0  0  0  0  0  0  0  0
    2.1240   -2.7980    0.8400 H   0  0  0  0  0  0  0  0  0  0  0  0
    2.7300    1.7790    1.1360 O   0  0  0  0  0  0  0  0  0  0  0  0
  1  2  1  0  0  0  0
  1  9  1  0  0  0  0
  2  3  1  0  0  0  0
  2 11  1  1  0  0  0
  3 22  2  0  0  0  0
  4 12  1  0  0  0  0
  4  3  1  0  0  0  0
  5 14  1  0  0  0  0
  5  2  1  0  0  0  0
  6 15  1  0  0  0  0
  6  5  1  0  0  0  0
  6  8  1  0  0  0  0
  7  6  1  0  0  0  0
  8 20  1  0  0  0  0
  8 21  1  0  0  0  0
 10  1  1  0  0  0  0
 13  5  1  0  0  0  0
 16  7  1  0  0  0  0
 17  7  1  0  0  0  0
 18  7  1  0  0  0  0
 19  8  1  0  0  0  0
M  END
