
 OpenBabel07231507453D

  3  2  0  0  0  0  0  0  0  0999 V2000
   -4.0724    1.9554    0.0000 C   0  0  0  0  0  0  0  0  0  0  0  0
   -3.0584    1.5709    0.0000 H   0  0  0  0  0  0  0  0  0  0  0  0
   -4.2680    3.1591    0.0000 O   0  0  0  0  0  0  0  0  0  0  0  0
  1  2  1  0  0  0  0
  1  3  2  0  0  0  0
M  CHG  1   1   -1
M  END
