
 OpenBabel04181608533D

  6  5  0  0  0  0  0  0  0  0999 V2000
    0.9771   -0.0745    0.0535 C   0  0  0  0  0  0  0  0  0  0  0  0
    0.3702    0.7236    0.7493 O   0  0  0  0  0  0  0  0  0  0  0  0
    0.2397   -1.0353   -0.7841 C   0  0  0  0  0  0  0  0  0  0  0  0
    0.8466   -1.8335   -1.4799 O   0  0  0  0  0  0  0  0  0  0  0  0
   -1.1073   -1.0376   -0.7861 O   0  5  0  0  0  0  0  0  0  0  0  0
    2.3242   -0.0723    0.0554 O   0  5  0  0  0  0  0  0  0  0  0  0
  1  2  2  0  0  0  0
  1  3  1  0  0  0  0
  1  6  1  0  0  0  0
  3  4  2  0  0  0  0
  3  5  1  0  0  0  0
M  CHG  2   5  -1   6  -1
M  END
