
 OpenBabel04181608553D

 22 24  0  0  0  0  0  0  0  0999 V2000
    3.4813   -0.3610   -0.0013 C   0  0  0  0  0  0  0  0  0  0  0  0
    2.8067    0.8608   -0.0017 C   0  0  0  0  0  0  0  0  0  0  0  0
    1.4063    0.8809   -0.0013 C   0  0  0  0  0  0  0  0  0  0  0  0
    0.7023    2.0941   -0.0017 C   0  0  0  0  0  0  0  0  0  0  0  0
   -0.6957    2.0958   -0.0013 C   0  0  0  0  0  0  0  0  0  0  0  0
   -1.4026    0.8842   -0.0005 C   0  0  0  0  0  0  0  0  0  0  0  0
   -2.8031    0.8674   -0.0001 C   0  0  0  0  0  0  0  0  0  0  0  0
   -3.4805   -0.3528    0.0006 C   0  0  0  0  0  0  0  0  0  0  0  0
   -2.7530   -1.5453    0.0011 C   0  0  0  0  0  0  0  0  0  0  0  0
   -1.3930   -1.5177    0.0007 N   0  0  0  0  0  0  0  0  0  0  0  0
   -0.7014   -0.3436   -0.0001 C   0  0  0  0  0  0  0  0  0  0  0  0
    0.7022   -0.3452   -0.0005 C   0  0  0  0  0  0  0  0  0  0  0  0
    1.3910   -1.5210   -0.0001 N   0  0  0  0  0  0  0  0  0  0  0  0
    2.7509   -1.5518   -0.0005 C   0  0  0  0  0  0  0  0  0  0  0  0
    4.5633   -0.3858   -0.0017 H   0  0  0  0  0  0  0  0  0  0  0  0
    3.3731    1.7845   -0.0023 H   0  0  0  0  0  0  0  0  0  0  0  0
    1.2345    3.0380   -0.0023 H   0  0  0  0  0  0  0  0  0  0  0  0
   -1.2257    3.0408   -0.0016 H   0  0  0  0  0  0  0  0  0  0  0  0
   -3.3673    1.7924   -0.0005 H   0  0  0  0  0  0  0  0  0  0  0  0
   -4.5626   -0.3751    0.0009 H   0  0  0  0  0  0  0  0  0  0  0  0
   -3.2712   -2.4948    0.0017 H   0  0  0  0  0  0  0  0  0  0  0  0
    3.2669   -2.5025   -0.0002 H   0  0  0  0  0  0  0  0  0  0  0  0
  1  2  2  0  0  0  0
  1 14  1  0  0  0  0
  1 15  1  0  0  0  0
  2  3  1  0  0  0  0
  2 16  1  0  0  0  0
  3  4  2  0  0  0  0
  3 12  1  0  0  0  0
  4  5  1  0  0  0  0
  4 17  1  0  0  0  0
  5  6  2  0  0  0  0
  5 18  1  0  0  0  0
  6  7  1  0  0  0  0
  6 11  1  0  0  0  0
  7  8  2  0  0  0  0
  7 19  1  0  0  0  0
  8  9  1  0  0  0  0
  8 20  1  0  0  0  0
  9 10  2  0  0  0  0
  9 21  1  0  0  0  0
 10 11  1  0  0  0  0
 11 12  2  0  0  0  0
 12 13  1  0  0  0  0
 13 14  2  0  0  0  0
 14 22  1  0  0  0  0
M  END
