
 OpenBabel04071609453D

 36 40  0  0  0  0  0  0  0  0999 V2000
   -2.0640    0.1237   -0.0006 N   0  0  0  0  0  0  0  0  0  0  0  0
    0.1256    2.0640    0.0023 N   0  0  0  0  0  0  0  0  0  0  0  0
   -0.1255   -2.0639    0.0004 N   0  0  0  0  0  0  0  0  0  0  0  0
    2.0641   -0.1236   -0.0024 N   0  0  0  0  0  0  0  0  0  0  0  0
   -2.9603   -0.9458   -0.0000 C   0  0  0  0  0  0  0  0  0  0  0  0
   -4.3226   -0.4276    0.0130 C   0  0  0  0  0  0  0  0  0  0  0  0
   -4.2391    0.9448    0.0116 C   0  0  0  0  0  0  0  0  0  0  0  0
   -2.8241    1.2940    0.0088 C   0  0  0  0  0  0  0  0  0  0  0  0
   -5.2166   -1.0333    0.0254 H   0  0  0  0  0  0  0  0  0  0  0  0
   -5.0530    1.6546    0.0105 H   0  0  0  0  0  0  0  0  0  0  0  0
   -2.3182    2.6162    0.0013 C   0  0  0  0  0  0  0  0  0  0  0  0
   -2.6180   -2.3198    0.0001 C   0  0  0  0  0  0  0  0  0  0  0  0
   -0.4282    4.3219   -0.0152 C   0  0  0  0  0  0  0  0  0  0  0  0
    0.9442    4.2399   -0.0157 C   0  0  0  0  0  0  0  0  0  0  0  0
    1.2952    2.8252    0.0001 C   0  0  0  0  0  0  0  0  0  0  0  0
   -0.9448    2.9592   -0.0071 C   0  0  0  0  0  0  0  0  0  0  0  0
   -1.0351    5.2153   -0.0169 H   0  0  0  0  0  0  0  0  0  0  0  0
    1.6527    5.0547   -0.0310 H   0  0  0  0  0  0  0  0  0  0  0  0
    2.6182    2.3199    0.0002 C   0  0  0  0  0  0  0  0  0  0  0  0
    0.9448   -2.9593   -0.0075 C   0  0  0  0  0  0  0  0  0  0  0  0
    0.4281   -4.3220   -0.0117 C   0  0  0  0  0  0  0  0  0  0  0  0
   -0.9443   -4.2398   -0.0143 C   0  0  0  0  0  0  0  0  0  0  0  0
   -1.2952   -2.8250    0.0003 C   0  0  0  0  0  0  0  0  0  0  0  0
    1.0349   -5.2154   -0.0108 H   0  0  0  0  0  0  0  0  0  0  0  0
   -1.6531   -5.0545   -0.0281 H   0  0  0  0  0  0  0  0  0  0  0  0
    4.3227    0.4274    0.0145 C   0  0  0  0  0  0  0  0  0  0  0  0
    4.2390   -0.9449    0.0150 C   0  0  0  0  0  0  0  0  0  0  0  0
    2.8241   -1.2940    0.0085 C   0  0  0  0  0  0  0  0  0  0  0  0
    2.9604    0.9459    0.0003 C   0  0  0  0  0  0  0  0  0  0  0  0
    5.2168    1.0329    0.0283 H   0  0  0  0  0  0  0  0  0  0  0  0
    5.0530   -1.6547    0.0162 H   0  0  0  0  0  0  0  0  0  0  0  0
    2.3182   -2.6162    0.0008 C   0  0  0  0  0  0  0  0  0  0  0  0
   -3.3904   -3.0042    0.0000 H   0  0  0  0  0  0  0  0  0  0  0  0
   -3.0026    3.3886    0.0020 H   0  0  0  0  0  0  0  0  0  0  0  0
    3.3906    3.0043    0.0002 H   0  0  0  0  0  0  0  0  0  0  0  0
    3.0026   -3.3886    0.0013 H   0  0  0  0  0  0  0  0  0  0  0  0
  1  5  1  0  0  0  0
  1  8  2  0  0  0  0
  4 29  2  0  0  0  0
  4 28  1  0  0  0  0
  5 12  2  0  0  0  0
  5  6  1  0  0  0  0
  6  9  1  0  0  0  0
  7  6  2  0  0  0  0
  8  7  1  0  0  0  0
 10  7  1  0  0  0  0
 11  8  1  0  0  0  0
 11 34  1  0  0  0  0
 12 23  1  0  0  0  0
 12 33  1  0  0  0  0
 13 16  1  0  0  0  0
 14 13  2  0  0  0  0
 14 15  1  0  0  0  0
 15 19  2  0  0  0  0
 15  2  1  0  0  0  0
 16 11  2  0  0  0  0
 16  2  1  0  0  0  0
 17 13  1  0  0  0  0
 18 14  1  0  0  0  0
 19 29  1  0  0  0  0
 19 35  1  0  0  0  0
 20  3  1  0  0  0  0
 20 32  1  0  0  0  0
 21 24  1  0  0  0  0
 21 20  2  0  0  0  0
 22 21  1  0  0  0  0
 22 23  2  0  0  0  0
 23  3  1  0  0  0  0
 25 22  1  0  0  0  0
 26 27  2  0  0  0  0
 26 30  1  0  0  0  0
 27 31  1  0  0  0  0
 28 27  1  0  0  0  0
 29 26  1  0  0  0  0
 32 28  2  0  0  0  0
 32 36  1  0  0  0  0
M  END
