
 OpenBabel04201614333D

 14 13  0  0  1  0  0  0  0  0999 V2000
    0.0430   -0.0560    0.0000 N   0  0  0  0  0  0  0  0  0  0  0  0
    1.5020   -0.0200    0.0000 C   0  0  2  0  0  0  0  0  0  0  0  0
    2.0090    1.4020    0.0000 C   0  0  0  0  0  0  0  0  0  0  0  0
    1.2440    2.3670    0.0000 O   0  0  0  0  0  0  0  0  0  0  0  0
    2.0730   -0.8290   -1.1920 C   0  0  0  0  0  0  0  0  0  0  0  0
    1.8240   -0.2070   -2.4570 O   0  0  0  0  0  0  0  0  0  0  0  0
   -0.5520    0.8450    0.0000 H   0  0  0  0  0  0  0  0  0  0  0  0
   -0.5070   -0.9860    0.0000 H   0  0  0  0  0  0  0  0  0  0  0  0
    1.8540   -0.4860    0.9390 H   0  0  0  0  0  0  0  0  0  0  0  0
    3.1680   -0.9470   -1.0720 H   0  0  0  0  0  0  0  0  0  0  0  0
    1.6750   -1.8620   -1.2030 H   0  0  0  0  0  0  0  0  0  0  0  0
    0.8710   -0.1780   -2.5800 H   0  0  0  0  0  0  0  0  0  0  0  0
    3.4300    1.5620    0.0000 O   0  0  0  0  0  0  0  0  0  0  0  0
    3.8800    0.6360    0.0000 H   0  0  0  0  0  0  0  0  0  0  0  0
  1  2  1  0  0  0  0
  1  7  1  0  0  0  0
  1  8  1  0  0  0  0
  2  3  1  0  0  0  0
  2  9  1  1  0  0  0
  3  4  2  0  0  0  0
  3 13  1  0  0  0  0
  5 10  1  0  0  0  0
  5  2  1  0  0  0  0
  6  5  1  0  0  0  0
 11  5  1  0  0  0  0
 12  6  1  0  0  0  0
 13 14  1  0  0  0  0
M  END
