
 OpenBabel03211611253D

  3  2  0  0  0  0  0  0  0  0999 V2000
   -4.9647    1.4606   -0.0026 S   0  0  0  0  0  0  0  0  0  0  0  0
   -3.2771    1.5103   -0.0000 C   0  0  0  0  0  0  0  0  0  0  0  0
   -2.0959    1.5450    0.0018 N   0  0  0  0  0  0  0  0  0  0  0  0
  1  2  1  0  0  0  0
  2  3  3  0  0  0  0
M  CHG  1   1   -1
M  END
