
 OpenBabel04201614333D

 24 24  0  0  1  0  0  0  0  0999 V2000
    0.1150   -0.1050    0.0000 N   0  0  0  0  0  0  0  0  0  0  0  0
    1.5740   -0.0470    0.0000 C   0  0  2  0  0  0  0  0  0  0  0  0
    2.0590    1.3830    0.0000 C   0  0  0  0  0  0  0  0  0  0  0  0
    1.2790    2.3370    0.0000 O   0  0  0  0  0  0  0  0  0  0  0  0
    2.1570   -0.7530   -1.2590 C   0  0  0  0  0  0  0  0  0  0  0  0
    1.8560   -2.2480   -1.4120 C   0  0  0  0  0  0  0  0  0  0  0  0
    2.5670   -3.1980   -0.6730 C   0  0  0  0  0  0  0  0  0  0  0  0
    0.8540   -2.6680   -2.2920 C   0  0  0  0  0  0  0  0  0  0  0  0
    2.2730   -4.5530   -0.8100 C   0  0  0  0  0  0  0  0  0  0  0  0
    0.5620   -4.0220   -2.4280 C   0  0  0  0  0  0  0  0  0  0  0  0
    1.2720   -4.9630   -1.6860 C   0  0  0  0  0  0  0  0  0  0  0  0
    0.9850   -6.2930   -1.8150 O   0  0  0  0  0  0  0  0  0  0  0  0
   -0.4930    0.7880    0.0000 H   0  0  0  0  0  0  0  0  0  0  0  0
   -0.4210   -1.0420    0.0000 H   0  0  0  0  0  0  0  0  0  0  0  0
    1.9520   -0.5340    0.9180 H   0  0  0  0  0  0  0  0  0  0  0  0
    1.8240   -0.2130   -2.1700 H   0  0  0  0  0  0  0  0  0  0  0  0
    3.2580   -0.6320   -1.2770 H   0  0  0  0  0  0  0  0  0  0  0  0
    3.3420   -2.8880    0.0140 H   0  0  0  0  0  0  0  0  0  0  0  0
    0.2900   -1.9420   -2.8630 H   0  0  0  0  0  0  0  0  0  0  0  0
    2.8160   -5.2870   -0.2340 H   0  0  0  0  0  0  0  0  0  0  0  0
   -0.2190   -4.3320   -3.1060 H   0  0  0  0  0  0  0  0  0  0  0  0
    0.2760   -6.3890   -2.4530 H   0  0  0  0  0  0  0  0  0  0  0  0
    3.4780    1.5630    0.0000 O   0  0  0  0  0  0  0  0  0  0  0  0
    3.9410    0.6430    0.0000 H   0  0  0  0  0  0  0  0  0  0  0  0
  1  2  1  0  0  0  0
  2 15  1  1  0  0  0
  3  2  1  0  0  0  0
  4  3  2  0  0  0  0
  5  2  1  0  0  0  0
  6  5  1  0  0  0  0
  6  7  2  0  0  0  0
  7 18  1  0  0  0  0
  8  6  1  0  0  0  0
  9  7  1  0  0  0  0
  9 20  1  0  0  0  0
 10  8  2  0  0  0  0
 10 11  1  0  0  0  0
 11  9  2  0  0  0  0
 12 11  1  0  0  0  0
 13  1  1  0  0  0  0
 14  1  1  0  0  0  0
 16  5  1  0  0  0  0
 17  5  1  0  0  0  0
 19  8  1  0  0  0  0
 21 10  1  0  0  0  0
 22 12  1  0  0  0  0
 23 24  1  0  0  0  0
 23  3  1  0  0  0  0
M  END
